[TITLE]
;;Project Title/Notes

[OPTIONS]
;;Option             Value
FLOW_UNITS           LPS
INFILTRATION         HORTON
FLOW_ROUTING         DYNWAVE
LINK_OFFSETS         DEPTH
MIN_SLOPE            0
ALLOW_PONDING        NO
SKIP_STEADY_STATE    NO

START_DATE           01/01/2021
START_TIME           00:00:00
REPORT_START_DATE    01/01/2021
REPORT_START_TIME    00:00:00
END_DATE             01/01/2021
END_TIME             03:00:00
SWEEP_START          01/01
SWEEP_END            12/31
DRY_DAYS             0
REPORT_STEP          00:05:00
WET_STEP             00:01:00
DRY_STEP             00:01:00
ROUTING_STEP         0:00:01 
RULE_STEP            00:00:00

INERTIAL_DAMPING     PARTIAL
NORMAL_FLOW_LIMITED  BOTH
FORCE_MAIN_EQUATION  H-W
VARIABLE_STEP        0.75
LENGTHENING_STEP     0
MIN_SURFAREA         1.167
MAX_TRIALS           8
HEAD_TOLERANCE       0.0015
SYS_FLOW_TOL         5
LAT_FLOW_TOL         5
MINIMUM_STEP         0.5
THREADS              1

[EVAPORATION]
;;Data Source    Parameters
;;-------------- ----------------
CONSTANT         0.0
DRY_ONLY         NO

[RAINGAGES]
;;Name           Format    Interval SCF      Source    
;;-------------- --------- ------ ------ ----------
rain_1           VOLUME    00:05    1.0      TIMESERIES 1AEP_D90_8      

[SUBCATCHMENTS]
;;Name           Rain Gage        Outlet           Area     %Imperv  Width    %Slope   CurbLen  SnowPack        
;;-------------- ---------------- ---------------- -------- -------- -------- -------- -------- ----------------
S5               rain_1           ETRS18P1160      4.0102   74.188373 250.0    2.29     0                        
S7               rain_1           EGAR19P0070      1.0713   56.874928 250.0    4.54     0                        
S13              rain_1           ETRS18P1360      2.8011   58.583505 250.0    1.71     0                        
S14              rain_1           ETRS18P0730      6.2371   67.197184 250.0    1.23     0                        
S15              rain_1           ETRS18P0430      3.7052   62.341839 250.0    4.99     0                        
S16              rain_1           ETRS18P0170      5.7122   61.035431 250.0    10.15    0                        
S17              rain_1           ETRS18P0120      1.5218   86.669734 250.0    6.11     0                        
S21              rain_1           ETRS18P1740      2.1821   67.728279 250.0    2.03     0                        
S22              rain_1           ETRS18P1530      5.9406   68.452047 250.0    3.63     0                        
S23              rain_1           ESC17P1120       6.25     65.777438 250.0    3.85     0                        
S24              rain_1           ESC17P0120       6.25     59.163306 250.0    8.26     0                        
S25              rain_1           ETRS18P0250      5.3221   75.043087 250.0    8.4      0                        
S30              rain_1           ECOB16P4860      4.1474   65.904381 250.0    3.54     0                        
S31              rain_1           ECOB16P4770      6.25     65.881249 250.0    6.14     0                        
S32              rain_1           ESC17P0930       6.25     57.722374 250.0    7.28     0                        
S33              rain_1           ESC17P0430       6.25     61.151753 250.0    8.26     0                        
S34              rain_1           ESC17P0210       2.3069   73.490246 250.0    5.14     0                        
S38              rain_1           ECOB16P6490      1.622    58.771243 250.0    4.27     0                        
S39              rain_1           ECOB16P6340      6.2493   63.153317 250.0    8.03     0                        
S40              rain_1           ECOB16P4460      6.25     61.171664 250.0    8.76     0                        
S41              rain_1           ECOB16P1620      6.25     65.31142 250.0    7.43     0                        
S42              rain_1           ECOB16P0860      6.25     64.087622 250.0    5.38     0                        
S46              rain_1           ECOB16P10160     3.026    58.778221 250.0    3.4      0                        
S47              rain_1           ECOB16P6700      5.6957   59.722128 250.0    6.65     0                        
S48              rain_1           ECOB16P5780      6.25     65.349379 250.0    7.59     0                        
S49              rain_1           ECOB16P5270      6.25     61.499506 250.0    5.4      0                        
S50              rain_1           ECOB16P1540      6.25     66.659518 250.0    2.92     0                        
S51              rain_1           ECOB16P1440      6.25     60.406678 250.0    2.6      0                        
S52              rain_1           ECOB16P1140      6.1385   77.238528 250.0    5.21     0                        
S53              rain_1           ECOB16P0520      3.102    86.034117 250.0    4.12     0                        
S55              rain_1           ECOB16P10210     5.8265   72.876944 250.0    3.91     0                        
S56              rain_1           ECOB16P8580      6.25     66.173746 250.0    6.98     0                        
S57              rain_1           ECOB16P5600      6.25     63.218019 250.0    3.09     0                        
S58              rain_1           ECOB16P4320      6.25     69.446597 250.0    2.57     0                        
S59              rain_1           ECOB16P2310      6.25     68.072718 250.0    4.47     0                        
S60              rain_1           ECOB16P1840      6.25     64.672275 250.0    6.88     0                        
S61              rain_1           ECOB16P0190      5.5936   60.3639  250.0    6.67     0                        
S62              rain_1           ECOB16P0451      1.8309   72.079088 250.0    6.37     0                        
S64              rain_1           ECOB16P9180      5.1367   65.35383 250.0    5.34     0                        
S65              rain_1           ECOB16P8860      6.25     63.818017 250.0    8.47     0                        
S66              rain_1           ECOB16P7460      6.25     66.466912 250.0    6.61     0                        
S67              rain_1           ECOB16P3130      6.25     67.45781 250.0    6.29     0                        
S68              rain_1           ECOB16P2810      6.25     67.045283 250.0    7.92     0                        
S69              rain_1           ECOB16P2580      5.8613   62.308864 250.0    6.28     0                        
S73              rain_1           ECOB16P9690      2.7895   62.77881 250.0    3.7      0                        
S74              rain_1           ECOB16P7780      6.25     65.280033 250.0    7.2      0                        
S75              rain_1           N_str_1_06       6.25     82.318903 250.0    7.53     0                        
S76              rain_1           ECOB16P3360      6.25     66.700142 250.0    8.02     0                        
S77              rain_1           ECOB16P3400      5.9052   61.848917 250.0    7.32     0                        
S78              rain_1           ECOB16P7330      1.3597   59.54889 250.0    4.18     0                        
S83              rain_1           ECOB16P8110      5.3173   68.283568 250.0    3.22     0                        
S84              rain_1           N_str_1_01       6.25     68.249034 250.0    3.85     0                        
S85              rain_1           ECOB16P3970      6.25     65.920079 250.0    5.45     0                        
S86              rain_1           ECOB16P4060      5.4311   63.595741 250.0    4.44     0                        
S93              rain_1           ECOB16P8350      2.4086   47.773227 250.0    0.11     0                        
S94              rain_1           ECOB16P8260      2.963    60.261655 250.0    2.29     0                        
S95              rain_1           ECOB16P4220      3.1772   60.209671 250.0    1.48     0                        

[SUBAREAS]
;;Subcatchment   N-Imperv   N-Perv     S-Imperv   S-Perv     PctZero    RouteTo    PctRouted 
;;-------------- ---------- ---------- ---------- ---------- ---------- ---------- ----------
S5               0.024      0.15       5.0        49.0       0          OUTLET    
S7               0.024      0.15       5.0        49.0       0          OUTLET    
S13              0.024      0.15       5.0        49.0       0          OUTLET    
S14              0.024      0.15       5.0        49.0       0          OUTLET    
S15              0.024      0.15       5.0        49.0       0          OUTLET    
S16              0.024      0.15       5.0        49.0       0          OUTLET    
S17              0.024      0.15       5.0        49.0       0          OUTLET    
S21              0.024      0.15       5.0        49.0       0          OUTLET    
S22              0.024      0.15       5.0        49.0       0          OUTLET    
S23              0.024      0.15       5.0        49.0       0          OUTLET    
S24              0.024      0.15       5.0        49.0       0          OUTLET    
S25              0.024      0.15       5.0        49.0       0          OUTLET    
S30              0.024      0.15       5.0        49.0       0          OUTLET    
S31              0.024      0.15       5.0        49.0       0          OUTLET    
S32              0.024      0.15       5.0        49.0       0          OUTLET    
S33              0.024      0.15       5.0        49.0       0          OUTLET    
S34              0.024      0.15       5.0        49.0       0          OUTLET    
S38              0.024      0.15       5.0        49.0       0          OUTLET    
S39              0.024      0.15       5.0        49.0       0          OUTLET    
S40              0.024      0.15       5.0        49.0       0          OUTLET    
S41              0.024      0.15       5.0        49.0       0          OUTLET    
S42              0.024      0.15       5.0        49.0       0          OUTLET    
S46              0.024      0.15       5.0        49.0       0          OUTLET    
S47              0.024      0.15       5.0        49.0       0          OUTLET    
S48              0.024      0.15       5.0        49.0       0          OUTLET    
S49              0.024      0.17       5.0        49.0       0          OUTLET    
S50              0.024      0.15       5.0        49.0       0          OUTLET    
S51              0.024      0.15       5.0        49.0       0          OUTLET    
S52              0.024      0.15       5.0        49.0       0          OUTLET    
S53              0.024      0.15       5.0        49.0       0          OUTLET    
S55              0.024      0.15       5.0        49.0       0          OUTLET    
S56              0.024      0.15       5.0        49.0       0          OUTLET    
S57              0.024      0.15       5.0        49.0       0          OUTLET    
S58              0.024      0.15       5.0        49.0       0          OUTLET    
S59              0.024      0.15       5.0        49.0       0          OUTLET    
S60              0.024      0.15       5.0        49.0       0          OUTLET    
S61              0.024      0.15       5.0        49.0       0          OUTLET    
S62              0.024      0.15       5.0        49.0       0          OUTLET    
S64              0.024      0.15       5.0        49.0       0          OUTLET    
S65              0.024      0.15       5.0        49.0       0          OUTLET    
S66              0.024      0.4        5.0        49.0       0          OUTLET    
S67              0.024      0.15       5.0        49.0       0          OUTLET    
S68              0.024      0.15       5.0        49.0       0          OUTLET    
S69              0.024      0.15       5.0        49.0       0          OUTLET    
S73              0.024      0.15       5.0        49.0       0          OUTLET    
S74              0.024      0.15       5.0        49.0       0          OUTLET    
S75              0.024      0.4        5.0        49.0       0          OUTLET    
S76              0.024      0.15       5.0        49.0       0          OUTLET    
S77              0.024      0.15       5.0        49.0       0          OUTLET    
S78              0.024      0.15       5.0        49.0       0          OUTLET    
S83              0.024      0.15       5.0        49.0       0          OUTLET    
S84              0.024      0.4        5.0        49.0       0          OUTLET    
S85              0.024      0.15       5.0        49.0       0          OUTLET    
S86              0.024      0.15       5.0        49.0       0          OUTLET    
S93              0.024      0.15       5.0        49.0       0          OUTLET    
S94              0.024      0.15       5.0        49.0       0          OUTLET    
S95              0.024      0.15       5.0        49.0       0          OUTLET    

[INFILTRATION]
;;Subcatchment   Param1     Param2     Param3     Param4     Param5    
;;-------------- ---------- ---------- ---------- ---------- ----------
S5               5          5          2          7          0         
S7               5          5          2          7          0         
S13              5          5          2          7          0         
S14              5          5          2          7          0         
S15              5          5          2          7          0         
S16              5          5          2          7          0         
S17              5          5          2          7          0         
S21              5          5          2          7          0         
S22              5          5          2          7          0         
S23              5          5          2          7          0         
S24              5          5          2          7          0         
S25              5          5          2          7          0         
S30              5          5          2          7          0         
S31              5          5          2          7          0         
S32              5          5          2          7          0         
S33              5          5          2          7          0         
S34              5          5          2          7          0         
S38              5          5          2          7          0         
S39              5          5          2          7          0         
S40              5          5          2          7          0         
S41              5          5          2          7          0         
S42              5          5          2          7          0         
S46              5          5          2          7          0         
S47              5          5          2          7          0         
S48              5          5          2          7          0         
S49              5          5          2          7          0         
S50              5          5          2          7          0         
S51              5          5          2          7          0         
S52              5          5          2          7          0         
S53              5          5          2          7          0         
S55              5          5          2          7          0         
S56              5          5          2          7          0         
S57              5          5          2          7          0         
S58              5          5          2          7          0         
S59              5          5          2          7          0         
S60              5          5          2          7          0         
S61              5          5          2          7          0         
S62              5          5          2          7          0         
S64              5          5          2          7          0         
S65              5          5          2          7          0         
S66              5          5          2          7          0         
S67              5          5          2          7          0         
S68              5          5          2          7          0         
S69              5          5          2          7          0         
S73              5          5          2          7          0         
S74              5          5          2          7          0         
S75              5          5          2          7          0         
S76              5          5          2          7          0         
S77              5          5          2          7          0         
S78              5          5          2          7          0         
S83              5          5          2          7          0         
S84              5          5          2          7          0         
S85              5          5          2          7          0         
S86              5          5          2          7          0         
S93              5          5          2          7          0         
S94              3.5        3.5        2          7          0         
S95              3.5        3.5        2          7          0         

[JUNCTIONS]
;;Name           Elevation  MaxDepth   InitDepth  SurDepth   Aponded   
;;-------------- ---------- ---------- ---------- ---------- ----------
ECOB16P0020      7.08       0          0          88.88      0         
ECOB16P0030      7.64       0.98858    0          0          0         
ECOB16P0040      7.17       0          0          88.88      0         
ECOB16P0050      8.66       1.6153     0          0          0         
ECOB16P0060      10.6       0          0          88.88      0         
ECOB16P0070      11.19      0.6223     0          0          0         
ECOB16P0080      11.09      1.0302     0          0          0         
ECOB16P0090      8.72       1.7127     0          0          0         
ECOB16P0100      8.98       1.8745     0          0          0         
ECOB16P0110      9.96       2.1407     0          0          0         
ECOB16P0120      10.53      0          0          88.88      0         
ECOB16P0130      13         0          0          88.88      0         
ECOB16P0140      13.64      0          0          88.88      0         
ECOB16P0150      15.28      0          0          88.88      0         
ECOB16P0160      15.45      0.7986     0          0          0         
ECOB16P0170      14.02      1.4968     0          0          0         
ECOB16P0180      15.58      1.2442     0          0          0         
ECOB16P0190      15.82      1.5191     0          0          0         
ECOB16P0200      19.46      1.6457     0          0          0         
ECOB16P0210      24.66      1.3961     0          0          0         
ECOB16P0220      28.03      0.9933     0          0          0         
ECOB16P0250      25.4       0.9751     0          0          0         
ECOB16P0260      26.61      1.3538     0          0          0         
ECOB16P0270      31.12      1.0911     0          0          0         
ECOB16P0280      32.55      0.7448     0          0          0         
ECOB16P0290      33.05      1.1014     0          0          0         
ECOB16P0300      28.04      1.1529     0          0          0         
ECOB16P0310      28.97      0.6636     0          0          0         
ECOB16P0350      19.88      0          0          88.88      0         
ECOB16P0360      20.23      0          0          88.88      0         
ECOB16P0370      22.02      0          0          88.88      0         
ECOB16P0380      22.36      0.9393     0          0          0         
ECOB16P0390      22.4       0.8437     0          0          0         
ECOB16P0400      22.89      1.4521     0          0          0         
ECOB16P0410      23         1.217      0          0          0         
ECOB16P0420      23.06      0.8813     0          0          0         
ECOB16P0430      23.1       1.381      0          0          0         
ECOB16P0440      23.24      1.308      0          0          0         
ECOB16P0450      23.28      1.1914     0          0          0         
ECOB16P0451      23.32      1.2147     0          0          0         
ECOB16P0470      1.22       0          0          88.88      0         
ECOB16P0480      1.31       0          0          88.88      0         
ECOB16P0490      5.48       0          0          88.88      0         
ECOB16P0500      5.66       0          0          88.88      0         
ECOB16P0510      6.38       0          0          88.88      0         
ECOB16P0520      6.41       0.9283     0          0          0         
ECOB16P0530      1.32       0          0          88.88      0         
ECOB16P0540      5.33       1.75598    0          0          0         
ECOB16P0550      3.99       1.84576    0          0          0         
ECOB16P0560      4.5        1.332      0          0          0         
ECOB16P0570      4.78       1.07678    0          0          0         
ECOB16P0580      5.01       0.97104    0          0          0         
ECOB16P0590      1.33       0          0          88.88      0         
ECOB16P0600      1.37       0          0          88.88      0         
ECOB16P0610      1.86       0          0          88.88      0         
ECOB16P0620      1.86       0          0          88.88      0         
ECOB16P0630      1.86       0          0          88.88      0         
ECOB16P0640      1.89       0          0          88.88      0         
ECOB16P0650      4.81       1.87275    0          0          0         
ECOB16P0660      4.87       1.64656    0          0          0         
ECOB16P0670      5.08       1.4366     0          0          0         
ECOB16P0680      2.26       0          0          88.88      0         
ECOB16P0690      3.96       2.58446    0          0          0         
ECOB16P0700      4.1        2.63746    0          0          0         
ECOB16P0710      4.2        0          0          88.88      0         
ECOB16P0720      4.79       2.13482    0          0          0         
ECOB16P0730      5.23       1.74013    0          0          0         
ECOB16P0740      5.48       1.41049    0          0          0         
ECOB16P0750      5.84       1.3842     0          0          0         
ECOB16P0760      5.06       0          0          88.88      0         
ECOB16P0770      5.39       0          0          88.88      0         
ECOB16P0780      6.1        1.32796    0          0          0         
ECOB16P0790      5.73       0          0          88.88      0         
ECOB16P0800      6.26       0          0          88.88      0         
ECOB16P1600      7.47       2.8701     0          0          0         
ECOB16P1610      8.91       2.2067     0          0          0         
ECOB16P1620      10.63      2.291      0          0          0         
ECOB16P1630      11.87      0          0          88.88      0         
ECOB16P1640      13.89      0.8358     0          0          0         
ECOB16P1650      12.78      0          0          88.88      0         
ECOB16P1660      14.12      0.8145     0          0          0         
ECOB16P3900      26.3       0          0          88.88      0         
ECOB16P3210      19.06      0.7281     0          0          0         
ECOB16P3220      27         0          0          88.88      0         
ECOB16P3230      31.81      1.3947     0          0          0         
ECOB16P3240      32.24      1.3814     0          0          0         
ECOB16P3250      15.16      0          0          88.88      0         
ECOB16P3260      15.59      1.4537     0          0          0         
ECOB16P3270      15.74      1.4539     0          0          0         
ECOB16P3280      15.56      0          0          88.88      0         
ECOB16P3290      16.63      0.7536     0          0          0         
ECOB16P3300      15.99      0          0          88.88      0         
ECOB16P3310      16.92      0.8564     0          0          0         
ECOB16P3320      16.92      0          0          88.88      0         
ECOB16P3330      17.42      1.3786     0          0          0         
ECOB16P3340      17.8       1.026      0          0          0         
ECOB16P3350      19.66      0          0          88.88      0         
ECOB16P3360      20.37      1.0645     0          0          0         
ECOB16P3370      20.64      0.982      0          0          0         
ECOB16P3380      38.87      1.5987     0          0          0         
ECOB16P3390      39.17      1.4529     0          0          0         
ECOB16P3400      55.73      0.8953     0          0          0         
ECOB16P3660      25.9       0          0          88.88      0         
ECOB16P3670      26.48      0          0          88.88      0         
ECOB16P3680      26.58      1.3823     0          0          0         
ECOB16P3690      27.14      1.1725     0          0          0         
ECOB16P3700      34.61      0          0          88.88      0         
ECOB16P1230      5.36       0.73081    0          0          0         
ECOB16P1240      1.79       0          0          88.88      0         
ECOB16P1250      3.68       0          0          88.88      0         
ECOB16P1270      3.78       0          0          88.88      0         
ECOB16P1280      4.03       0          0          88.88      0         
ECOB16P1290      5.98       0          0          88.88      0         
ECOB16P1300      6.92       1.54072    0          0          0         
ECOB16P1350      6.97       1.62696    0          0          0         
ECOB16P1430      2.28       0          0          88.88      0         
ECOB16P1434      2.3        0          0          88.88      0         
ECOB16P1440      2.38       2.25439    0          0          0         
ECOB16P1450      2.72       0          0          88.88      0         
ECOB16P1460      5.9        0.72955    0          0          0         
ECOB16P1470      3.07       0          0          88.88      0         
ECOB16P1480      4.77       1.17022    0          0          0         
ECOB16P1490      5.16       1.06226    0          0          0         
ECOB16P1500      3.37       0          0          88.88      0         
ECOB16P1510      6.87       0.69595    0          0          0         
ECOB16P1520      4          0          0          88.88      0         
ECOB16P1530      5.24       0.77475    0          0          0         
ECOB16P1540      4.31       1.8717     0          0          0         
ECOB16P1550      4.7        1.5584     0          0          0         
ECOB16P1560      4.82       1.46267    0          0          0         
ECOB16P1570      5.24       1.68699    0          0          0         
ECOB16P1580      6.59       0          0          88.88      0         
ECOB16P1590      8.21       0.78971    0          0          0         
ECOB16P2570      18.82      1.0033     0          0          0         
ECOB16P2580      25.07      0.946      0          0          0         
ECOB16P2590      27.93      0          0          88.88      0         
ECOB16P2600      30.43      1.243      0          0          0         
ECOB16P2610      29.3       0          0          88.88      0         
ECOB16P2620      31.13      0.9266     0          0          0         
ECOB16P2630      31.53      1.0026     0          0          0         
ECOB16P2660      30.44      1.694      0          0          0         
ECOB16P2670      35.58      1.4715     0          0          0         
ECOB16P2680      36.75      0          0          88.88      0         
ECOB16P2690      37.18      1.8374     0          0          0         
ECOB16P2700      37.5       0          0          88.88      0         
ECOB16P2710      39.45      0          0          88.88      0         
ECOB16P2720      41.9       0.9529     0          0          0         
ECOB16P2730      42.24      0.6829     0          0          0         
ECOB16P2740      42.22      0.7797     0          0          0         
ECOB16P2750      17.19      0          0          88.88      0         
ECOB16P2760      19.03      0.826      0          0          0         
ECOB16P2770      18.97      0.8527     0          0          0         
ECOB16P2780      24.7       0.3646     0          0          0         
ECOB16P2790      24.81      0.6029     0          0          0         
ECOB16P2800      25.5       1.3061     0          0          0         
ECOB16P2810      17.52      1.6804     0          0          0         
ECOB16P2820      18.14      1.0212     0          0          0         
ECOB16P2830      18.71      0          0          88.88      0         
ECOB16P2840      8.38       0          0          88.88      0         
ECOB16P2020      30.06      1.3426     0          0          0         
ECOB16P2030      3.97       0          0          88.88      0         
ECOB16P2040      5.26       1.08317    0          0          0         
ECOB16P2050      4          0          0          88.88      0         
ECOB16P2060      4.86       1.29569    0          0          0         
ECOB16P2070      10.04      0.7611     0          0          0         
ECOB16P2080      10.08      0          0          88.88      0         
ECOB16P2360      7.59       0          0          88.88      0         
ECOB16P2370      10.82      0          0          88.88      0         
ECOB16P2380      12.19      0          0          88.88      0         